datafiles/IEEE_18BUS_PV_computed.m
function mpc = IEEE_18BUS_PV
%CASE9    Power flow data for 9 bus, 3 generator case.
%   Please see CASEFORMAT for details on the case file format.
%
%   Based on data from Joe H. Chow's book, p. 70.

%   This file is taken from MATPOWER available at http://www.pserc.cornell.edu/matpower/
%  R. D. Zimmerman, C. E. Murillo-S�nchez, and R. J. Thomas,
%  "MATPOWER: Steady-State Operations, Planning and Analysis Tools for Power Systems Research and Education," 
%  Power Systems, IEEE Transactions on, vol. 26, no. 1, pp. 12-19, Feb. 2011.

%% MATPOWER Case Format : Version 2
mpc.version = '2';
mpc.baseMVA = 75;
mpc.bus = [
1.0  3.0  0.0  0.0  0.0  0.0  1.0  1.0  0.0  240.0  1.0  1.0   1.0;
2.0  2.0  0.0  0.0  0.0  0.0  1.0  1.0  0.0  240.0  1.0  1.05  0.9;
3.0  1.0  0.0  0.0  0.0  0.0  1.0  1.0  0.0  240.0  1.0  1.05  0.9;
4.0  2.0  0.0  0.0  0.0  0.0  1.0  1.0  0.0  240.0  1.0  1.05  0.9;
5.0  2.0  0.0  0.0  0.0  0.0  1.0  1.0  0.0  240.0  1.0  1.05  0.9;
6.0  1.0  0.0  0.0  0.0  0.0  1.0  1.0  0.0  240.0  1.0  1.05  0.9;
7.0  2.0  0.0  0.0  0.0  0.0  1.0  1.0  0.0  240.0  1.0  1.05  0.9;
8.0  2.0  0.0  0.0  0.0  0.0  1.0  1.0  0.0  240.0  1.0  1.05  0.9;
9.0  1.0  0.0  0.0  0.0  0.0  1.0  1.0  0.0  240.0  1.0  1.05  0.9;
10.0  2.0  0.0  0.0  0.0  0.0  1.0  1.0  0.0  240.0  1.0  1.05  0.9;
11.0  2.0  0.0  0.0  0.0  0.0  1.0  1.0  0.0  240.0  1.0  1.05  0.9;
12.0  1.0  0.0  0.0  0.0  0.0  1.0  1.0  0.0  240.0  1.0  1.05  0.9;
13.0  2.0  0.0  0.0  0.0  0.0  1.0  1.0  0.0  240.0  1.0  1.05  0.9;
14.0  2.0  0.0  0.0  0.0  0.0  1.0  1.0  0.0  240.0  1.0  1.05  0.9;
15.0  1.0  0.0  0.0  0.0  0.0  1.0  1.0  0.0  240.0  1.0  1.05  0.9;
16.0  2.0  0.0  0.0  0.0  0.0  1.0  1.0  0.0  240.0  1.0  1.05  0.9;
17.0  2.0  0.0  0.0  0.0  0.0  1.0  1.0  0.0  240.0  1.0  1.05  0.9;
18.0  1.0  0.0  0.0  0.0  0.0  1.0  1.0  0.0  240.0  1.0  1.05  0.9;
19.0  2.0  0.0  0.0  0.0  0.0  1.0  1.0  0.0  240.0  1.0  1.05  0.9;
];
%     10 BASE_KV     baseKV, base voltage (kV)
% 
%% generator data
% PVeff = 0.8;
% Pg Qg are initial serach values  
%	bus	Pg	Qg	Qmax	Qmin	Vg	mBase	status	PmaxDC[kW]	PminDC[kW]	Pc1	Pc2	Qc1min	Qc1max	Qc2min	Qc2max	ramp_agc	ramp_10	ramp_30	ramp_q	apf
% Vg - initial voltage magnitude
mpc.gen = [
    1.0  0.0  0.0  1000.0    -1000.0    1.0  1.0  75.0  750.0    -750.0  0.0  0.0  0.0  0.0  0.0  0.0  0.0  0.0  0.0  0.0  0.0;
    2.0  0.0  0.0     4.416     -4.416  1.0  1.0  75.0    4.416     0.0  0.0  0.0  0.0  0.0  0.0  0.0  0.0  0.0  0.0  0.0  0.0;
    4.0  0.0  0.0     4.56      -4.56   1.0  1.0  75.0    4.56      0.0  0.0  0.0  0.0  0.0  0.0  0.0  0.0  0.0  0.0  0.0  0.0;
    5.0  0.0  0.0     7.2       -7.2    1.0  1.0  75.0    7.2       0.0  0.0  0.0  0.0  0.0  0.0  0.0  0.0  0.0  0.0  0.0  0.0;
    7.0  0.0  0.0     7.2       -7.2    1.0  1.0  75.0    7.2       0.0  0.0  0.0  0.0  0.0  0.0  0.0  0.0  0.0  0.0  0.0  0.0;
    8.0  0.0  0.0     7.2       -7.2    1.0  1.0  75.0    7.2       0.0  0.0  0.0  0.0  0.0  0.0  0.0  0.0  0.0  0.0  0.0  0.0;
   10.0  0.0  0.0     4.56      -4.56   1.0  1.0  75.0    4.56      0.0  0.0  0.0  0.0  0.0  0.0  0.0  0.0  0.0  0.0  0.0  0.0;
   11.0  0.0  0.0     7.2       -7.2    1.0  1.0  75.0    7.2       0.0  0.0  0.0  0.0  0.0  0.0  0.0  0.0  0.0  0.0  0.0  0.0;
   13.0  0.0  0.0     4.56      -4.56   1.0  1.0  75.0    4.56      0.0  0.0  0.0  0.0  0.0  0.0  0.0  0.0  0.0  0.0  0.0  0.0;
   14.0  0.0  0.0     4.416     -4.416  1.0  1.0  75.0    4.416     0.0  0.0  0.0  0.0  0.0  0.0  0.0  0.0  0.0  0.0  0.0  0.0;
   16.0  0.0  0.0     4.416     -4.416  1.0  1.0  75.0    4.416     0.0  0.0  0.0  0.0  0.0  0.0  0.0  0.0  0.0  0.0  0.0  0.0;
   17.0  0.0  0.0     4.56      -4.56   1.0  1.0  75.0    4.56      0.0  0.0  0.0  0.0  0.0  0.0  0.0  0.0  0.0  0.0  0.0  0.0;
   19.0  0.0  0.0     7.2       -7.2    1.0  1.0  75.0    7.2       0.0  0.0  0.0  0.0  0.0  0.0  0.0  0.0  0.0  0.0  0.0  0.0;
];

%% branch data
% dropLineL = 25; % [m]
% polePoleL = 75; % [m]
%r_dropLine = 0.549; % [Ohms/km]
%%x_dropLine = 0.230 + 0.055; % [Ohms/km]
%r_poleLine = 0.270; % [Ohms/km]
%x_poleLine = 0.240 + 0.072; % [Ohms/km]
% f = 50;
% r_dropLine = 0.549; % [Ohms/km]
% xC_dropLine = 1/(2*pi*f*0.055*10^-1); % [mjuF/km]
%xL_dropLine = 2*pi*f*0.230*10^-3; % [Ohms/km]
%x_dropLine = xL_dropLine - xC_dropLine;
% r_poleLine = 0.270; % [Ohms/km]
%xC_poleLine = 1/(2*pi*f*0.072*10^-1);
%xL_poleLine = 2*pi*f*0.240*10^-3;
%x_poleLine = xL_poleLine - xC_poleLine;
% r_Dline = r_dropLine/1000*dropLineL; % [Ohms]
% x_Dline = r_dropLine/1000*dropLineL/3.5; % [Ohms]
% r_Pline = r_poleLine/1000*polePoleL; % [Ohms]
% x_Pline = r_poleLine/1000*polePoleL/3.5; % [Ohms]
%	fbus	tbus	r	x	b	rateA	rateB	rateC	ratio	angle	status	angmin	angmax
%[F_BUS,   T_BUS,BR_R,BR_X,BR_B,RATE_A  RATE_B, RATE_C, TAP,    SHIFT, BR_STATUS, PF,     QF,   PT, QT, MU_SF, MU_ST, ANGMIN, ANGMAX, MU_ANGMIN, MU_ANGMAX] = idx_brch;
% === RATE_A - branch flow limits, 0 represents unconstrained lined 
% === TAP 9 - transformer of nominal turns ratio, if non-zero (taps at \from"
% bus, impedance at \to" bus, i.e. if r = x = b = 0, tap = Vf/Vt ;
% tap = 0 used to indicate transmission line rather than transformer,
% i.e. mathematically equivalent to transformer with tap = 1)
% opf.flow_lim option determines if branch limits are in S,P or I. 
% === SHIFT - trasnformer phase shift angle (degrees), positive -> delay

% Imaxp = 350; % 100A fpr a 3-phase system, 32A for one-phase
% Imaxd = 100;
mpc.branch = [
    1.0   3.0  0.0263672  0.00753348  0.0  1.0   0.0  0.0  0.0  0.0  1.0  -360.0  360.0;
    3.0   2.0  0.0178711  0.00510603  0.0  0.32  0.0  0.0  0.0  0.0  1.0  -360.0  360.0;
    3.0   4.0  0.0178711  0.00510603  0.0  0.32  0.0  0.0  0.0  0.0  1.0  -360.0  360.0;
    3.0   6.0  0.0263672  0.00753348  0.0  1.12  0.0  0.0  0.0  0.0  1.0  -360.0  360.0;
    6.0   5.0  0.0178711  0.00510603  0.0  0.32  0.0  0.0  0.0  0.0  1.0  -360.0  360.0;
    6.0   7.0  0.0178711  0.00510603  0.0  0.32  0.0  0.0  0.0  0.0  1.0  -360.0  360.0;
    6.0   9.0  0.0263672  0.00753348  0.0  1.12  0.0  0.0  0.0  0.0  1.0  -360.0  360.0;
    9.0   8.0  0.0178711  0.00510603  0.0  0.32  0.0  0.0  0.0  0.0  1.0  -360.0  360.0;
    9.0  10.0  0.0178711  0.00510603  0.0  0.32  0.0  0.0  0.0  0.0  1.0  -360.0  360.0;
    9.0  12.0  0.0263672  0.00753348  0.0  1.12  0.0  0.0  0.0  0.0  1.0  -360.0  360.0;
   12.0  11.0  0.0178711  0.00510603  0.0  0.32  0.0  0.0  0.0  0.0  1.0  -360.0  360.0;
   12.0  13.0  0.0178711  0.00510603  0.0  0.32  0.0  0.0  0.0  0.0  1.0  -360.0  360.0;
   12.0  15.0  0.0263672  0.00753348  0.0  1.12  0.0  0.0  0.0  0.0  1.0  -360.0  360.0;
   15.0  14.0  0.0178711  0.00510603  0.0  0.32  0.0  0.0  0.0  0.0  1.0  -360.0  360.0;
   15.0  16.0  0.0178711  0.00510603  0.0  0.32  0.0  0.0  0.0  0.0  1.0  -360.0  360.0;
   15.0  18.0  0.0263672  0.00753348  0.0  1.12  0.0  0.0  0.0  0.0  1.0  -360.0  360.0;
   18.0  17.0  0.0178711  0.00510603  0.0  0.32  0.0  0.0  0.0  0.0  1.0  -360.0  360.0;
   18.0  19.0  0.0178711  0.00510603  0.0  0.32  0.0  0.0  0.0  0.0  1.0  -360.0  360.0;
];

% mpc.branch = [
% 1	3	r_Pline	x_Pline     0	0	0	0	0	0	1	-360	360; % line from slack bus has no impedance 
% 2	3	r_Dline	x_Dline	    0	0	0	0	0	0	1	-360	360;
% 4	3	r_Dline	x_Dline     0	0	0	0	0	0	1	-360	360;
% 3	6	r_Pline	x_Pline 	0	0	0	0	0	0	1	-360	360;
% 5	6	r_Dline	x_Dline     0	0	0	0	0	0	1	-360	360;
% 7	6	r_Dline	x_Dline     0	0	0	0	0	0	1	-360	360;
% 6	9	r_Pline	x_Pline 	0	0	0	0	0	0	1	-360	360;
% 8	9	r_Dline	x_Dline     0	0	0	0	0	0	1	-360	360;
% 10	9	r_Dline	x_Dline     0	0	0	0	0	0	1	-360	360;
% 9	12	r_Pline	x_Pline 	0	0	0	0	0	0	1	-360	360;
% 11	12	r_Dline	x_Dline     0	0	0	0	0	0	1	-360	360;
% 13	12	r_Dline	x_Dline     0	0	0	0	0	0	1	-360	360;
% 12	15	r_Pline	x_Pline 	0	0	0	0	0	0	1	-360	360;
% 14	15	r_Dline	x_Dline     0	0	0	0	0	0	1	-360	360;
% 16	15	r_Dline	x_Dline     0	0	0	0	0	0	1	-360	360;
% 15	18	r_Pline	x_Pline 	0	0	0	0	0	0	1	-360	360;
% 17	18	r_Dline	x_Dline     0	0	0	0	0	0	1	-360	360;
% 19	18	r_Dline	x_Dline     0	0	0	0	0	0	1	-360	360;
% ];
%%
mpc.bus_name = {
	'Grid';
	'BUS NO2';
	'POLE NO3';
	'BUS NO4';
	'BUS NO5';
	'POLE  NO6';
	'BUS NO7';
	'BUS NO8';
	'POLE  NO9';
	'BUS NO10';
    'BUS NO11';
    'POLE  NO12';
    'BUS NO13';
    'BUS NO14';
    'POLE  NO15';
    'BUS NO16';
    'BUS NO17';
    'POLE  NO18';
    'BUS NO19';
};
%%-----  OPF Data  -----%%
%% generator cost data
%	1	startup	shutdown	n	x1	y1	...	xn	yn
%	2	startup	shutdown	n	c(n-1)	...	c0
%[PW_LINEAR, POLYNOMIAL, MODEL, STARTUP, SHUTDOWN, NCOST, COST] = idx_cost;
mpc.gencost = [
    2	0      0	3	0    0.3	 0;
    2	0      0	3	0    0	 0;
    2	0      0	3	0    0	 0;
    2	0      0	3	0    0	 0;
    2	0      0	3	0    0	 0;
    2	0      0	3	0    0	 0;
    2	0      0	3	0    0	 0;
    2	0      0	3	0    0	 0;
    2	0      0	3	0    0	 0;
    2	0      0	3	0    0	 0;
    2	0      0	3	0    0	 0;
    2	0      0	3	0    0	 0;
    2	0      0	3	0    0	 0;
]; 
%MODEL       = 1;    %% cost model, 1 = piecewise linear, 2 = polynomial
%STARTUP     = 2;    %% startup cost in US dollars
%SHUTDOWN    = 3;    %% shutdown cost in US dollars
%NCOST       = 4;    %% number breakpoints in piecewise linear cost function,
%                    %% or number of coefficients in polynomial cost function
%COST         = 5;    %% parameters defining total cost function begin in this col
%% convert branch impedances from Ohms to p.u. 
mpc.Vbase = 240; % from kV to 240 Volts 
mpc.Sbase = 75000; % from kVA to VA 
% mpc.branch(:, [3, 4]) = mpc.branch(:, [3, 4]) /(mpc.Vbase^2 / mpc.Sbase); % in p.u.
mpc.Ibase = 312.5;
% mpc.branch(:, 6) =  mpc.branch(:, 6) / mpc.Ibase; % in p.u.  
%% convert loads from kW to MW and kVAR to MVAR
%mpc.bus(:, [3, 4]) = mpc.bus(:, [3, 4]);
